Auto-Transcript Start Time:  01:34:56, 02 Aug 2022 Eastern Daylight Time 
Current Directory: "E:\PyFluent\pyfluent-parametric\tests\test_optislang"

              Welcome to ANSYS Fluent 2022 R2

              Copyright 1987-2022 ANSYS, Inc. All Rights Reserved.
              Unauthorized use, distribution or duplication is prohibited.
              This product is subject to U.S. laws governing export and re-export.
              For full Legal Notice, see documentation.

Build Time: May 27 2022 08:52:58 EDT  Build Id: 10212  
Information: The server has started and is running.
 
Connected License Server List:	1055@lebfluintwin103.win.ansys.com

*********************************************
Info: Your license enables 4-way parallel execution.
For faster simulations, please start the application with the appropriate parallel options.
*********************************************

Host spawning Node 0 on machine "AAPptk4XW10hcrV" (win64).

*********************************************
Info: Your license enables 4-way parallel execution.
For faster simulations, please start the application with the appropriate parallel options.
*********************************************


----------------------------------------------------------------------------------
ID    Hostname         Core  O.S.         PID     Vendor                         
----------------------------------------------------------------------------------
n1    AAPptk4XW10hcrV  2/12  Windows-x64  71148   Intel(R) Xeon(R) Gold 6136     
n0*   AAPptk4XW10hcrV  1/12  Windows-x64  132652  Intel(R) Xeon(R) Gold 6136     
host  AAPptk4XW10hcrV        Windows-x64  95352   Intel(R) Xeon(R) Gold 6136     

MPI Option Selected: intel
Selected system interconnect: default
----------------------------------------------------------------------------------

Cleanup script file is E:\\PyFluent\\pyfluent-parametric\\tests\\test_optislang\\cleanup-fluent-AAPptk4XW10hcrV-95352.bat

> (cx-gui-do cx-activate-tab-index "Parametric Study*Table1*Frame1*Table2*Frame1" 0)
(cx-gui-do cx-activate-tab-index "Parametric Study*Table1*Frame1*Table2*Frame1" 1)
(cx-gui-do cx-activate-tab-index "Parametric Study*Table1*Frame1*Table2*Frame1" 0)
(cx-gui-do cx-activate-tab-index "Parametric Study*Table1*Frame1*Table2*Frame1" 2)
(cx-gui-do cx-activate-tab-index "Parametric Study*Table1*Frame1*Table2*Frame1" 0)
(cx-gui-do cx-activate-tab-index "Parametric Study*Table1*Frame1*Table2*Frame1" 3)
(cx-gui-do cx-activate-tab-index "Parametric Study*Table1*Frame1*Table2*Frame1" 0)
(cx-gui-do cx-activate-tab-index "Parametric Study*Table1*Frame1*Table2*Frame1" 0)
(cx-gui-do cx-activate-tab-index "Parametric Study*Table1*Frame1*Table2*Frame1" 0)
(cx-gui-do cx-activate-tab-index "Parametric Study*Table1*Frame1*Table2*Frame1" 0)
(syncdir "C:/Users/egravenh/AppData/Local/ansys_fluent_core/ansys_fluent_core/examples/project-phufu5f6.cffdb\Static_Mixer_main-Solve\BaseCases")()
---- Info:--- "DP2" is marked as current but it does not have output case and data, so making "Base DP" as a current design point
(syncdir "C:/Users/egravenh/AppData/Local/ansys_fluent_core/ansys_fluent_core/examples/project-phufu5f6.cffdb\Static_Mixer_main-Solve\BaseCases")()
Fast-loading "E:\Program Files\ANSYS Inc\v222\fluent\fluent22.2.0\\addons\afd\lib\hdfio.bin"
Done.
Multicore processors detected. Processor affinity set!

Reading from AAPptk4XW10hcrV:"C:/Users/egravenh/AppData/Local/ansys_fluent_core/ansys_fluent_core/examples/project-phufu5f6.cffdb\Static_Mixer_main-Solve\Base DP\Static_Mixer_main.cas.h5" in NODE0 mode ...
  Reading mesh ...
       22771 cells,     1 cell zone  ...
          22771 polyhedra cells,  zone id: 97
      119140 faces,     5 face zones ...
         114959 polygonal interior faces,  zone id: 96
           3873 polygonal wall faces,  zone id: 20
            104 polygonal pressure-outlet faces,  zone id: 19
            103 polygonal velocity-inlet faces,  zone id: 18
            101 polygonal velocity-inlet faces,  zone id: 17
       82247 nodes,     1 node zone  ...
  Done.


Building...
     mesh
	distributing mesh
		parts..,
		faces..,
		nodes..,
		cells..,
        bandwidth reduction using Reverse Cuthill-McKee: 11383/862 = 13.2053
     materials,
     interface,
     domains,
	mixture
     zones,
	interior--fluid
	wall
	outlet
	inlet2
	inlet1
	fluid
     parallel,
Done.

Reading from AAPptk4XW10hcrV:"C:/Users/egravenh/AppData/Local/ansys_fluent_core/ansys_fluent_core/examples/project-phufu5f6.cffdb\Static_Mixer_main-Solve\Base DP\Static_Mixer_main.dat.h5" in NODE0 mode ...


  Reading results.
Parallel variables...
Done.
(syncdir "C:/Users/egravenh/AppData/Local/ansys_fluent_core/ansys_fluent_core/examples/project-phufu5f6.cffdb/Static_Mixer_main-Solve/Base DP")()
(syncdir "C:/Users/egravenh/AppData/Local/ansys_fluent_core/ansys_fluent_core/examples/project-phufu5f6.cffdb/Static_Mixer_main-Solve/Base DP")()
(("inlet1_temp" . 300.) ("inlet1_vel" . 0.5) ("inlet2_temp" . 350.) ("inlet2_vel" . 1.))
(("outlet-temp-avg-op" . 333.3487) ("outlet-vel-avg-op" . 1.506855))
Multicore processors detected. Processor affinity set!

       Clearing partially read grid.

Reading from AAPptk4XW10hcrV:"C:/Users/egravenh/AppData/Local/ansys_fluent_core/ansys_fluent_core/examples/project-phufu5f6.cffdb\Static_Mixer_main-Solve\BaseCases\Static_Mixer_main.cas.h5" in NODE0 mode ...
  Reading mesh ...
       22771 cells,     1 cell zone  ...
          22771 polyhedra cells,  zone id: 97
      119140 faces,     5 face zones ...
         114959 polygonal interior faces,  zone id: 96
           3873 polygonal wall faces,  zone id: 20
            104 polygonal pressure-outlet faces,  zone id: 19
            103 polygonal velocity-inlet faces,  zone id: 18
            101 polygonal velocity-inlet faces,  zone id: 17
       82247 nodes,     1 node zone  ...
  Done.


Building...
     mesh
	distributing mesh
		parts..,
		faces..,
		nodes..,
		cells..,
        bandwidth reduction using Reverse Cuthill-McKee: 11383/862 = 13.2053
     materials,
     interface,
     domains,
	mixture
     zones,
	interior--fluid
	wall
	outlet
	inlet2
	inlet1
	fluid
     parallel,
Done.
The process cannot access the file because it is being used by another process.
A subdirectory or file C:/Users/egravenh/AppData/Local/ansys_fluent_core/ansys_fluent_core/examples/project-phufu5f6.cffdb/Static_Mixer_main-Solve/Base DP already exists.
(("inlet1_temp" . 300.) ("inlet1_vel" . 0.5) ("inlet2_temp" . 350.) ("inlet2_vel" . 1.))
Project saved successfully at "C:/Users/egravenh/AppData/Local/ansys_fluent_core/ansys_fluent_core/examples/project-phufu5f6.flprj"

Opening input/output transcript to file "C:/Users/egravenh/AppData/Local/ansys_fluent_core/ansys_fluent_core/examples/project-phufu5f6.cffdb/Static_Mixer_main-Solve/Base DP\Static_Mixer_main.trn".

----------------------------------------------------------------------------------
ID    Hostname         Core  O.S.         PID     Vendor                         
----------------------------------------------------------------------------------
n1    AAPptk4XW10hcrV  2/12  Windows-x64  71148   Intel(R) Xeon(R) Gold 6136     
n0*   AAPptk4XW10hcrV  1/12  Windows-x64  132652  Intel(R) Xeon(R) Gold 6136     
host  AAPptk4XW10hcrV        Windows-x64  95352   Intel(R) Xeon(R) Gold 6136     

MPI Option Selected: intel
Selected system interconnect: default
----------------------------------------------------------------------------------
(syncdir "C:/Users/egravenh/AppData/Local/ansys_fluent_core/ansys_fluent_core/examples/project-phufu5f6.cffdb/Static_Mixer_main-Solve/Base DP")()

Writing to AAPptk4XW10hcrV:"C:/Users/egravenh/AppData/Local/ansys_fluent_core/ansys_fluent_core/examples/project-phufu5f6.cffdb\Static_Mixer_main-Solve\BaseCases\Static_Mixer_main.cas.h5" in NODE0 mode and compression level 1 ...
       22771 cells,     1 zone  ...
      119140 faces,     5 zones ...
       82247 nodes,     1 zone  ...
  Done.
Done.


  iter  continuity  x-velocity  y-velocity  z-velocity      energy           k       omega     time/iter

 Reversed flow on 11 faces (20.3% area) of pressure-outlet 19.
     1  1.0000e+00  2.0378e-07  2.9832e-05  1.7914e-07  7.6852e-04  6.2995e-01  3.3546e+03  0:01:39   99
     2  1.0000e+00  2.3048e-02  6.7399e-02  4.8320e-02  6.7644e-04  8.7855e-01  4.7730e-01  0:01:18   98
     3  8.1309e-01  9.8434e-03  2.9496e-02  1.7638e-02  5.5265e-04  8.1964e-01  4.5762e-01  0:01:21   97
     4  6.6645e-01  5.7581e-03  1.6880e-02  8.8219e-03  5.5711e-04  7.5163e-01  4.2232e-01  0:01:05   96
     5  5.5029e-01  4.4607e-03  1.2440e-02  5.1729e-03  5.0083e-04  6.5605e-01  3.6087e-01  0:00:51   95
     6  4.7424e-01  3.8245e-03  9.1054e-03  3.8533e-03  4.3221e-04  4.8595e-01  2.7045e-01  0:00:59   94
     7  4.2972e-01  3.3523e-03  6.9417e-03  2.9578e-03  3.8497e-04  2.5052e-01  1.6806e-01  0:00:47   93
     8  3.9203e-01  2.9256e-03  5.5346e-03  2.4756e-03  3.4497e-04  1.0940e-01  8.6532e-02  0:00:37   92
     9  3.6395e-01  2.5898e-03  4.5919e-03  2.0635e-03  3.0787e-04  5.6541e-02  3.9394e-02  0:00:29   91
    10  3.4197e-01  2.3279e-03  3.8895e-03  1.7659e-03  2.8015e-04  3.4759e-02  1.6976e-02  0:00:41   90
    11  3.2011e-01  2.1118e-03  3.3382e-03  1.5252e-03  2.5342e-04  2.3284e-02  7.4115e-03  0:00:33   89

  iter  continuity  x-velocity  y-velocity  z-velocity      energy           k       omega     time/iter
    12  2.9491e-01  1.9219e-03  2.9043e-03  1.3417e-03  2.2675e-04  1.6750e-02  3.5133e-03  0:00:26   88
    13  2.6858e-01  1.7469e-03  2.5665e-03  1.1957e-03  2.0121e-04  1.2753e-02  1.8721e-03  0:00:38   87
    14  2.4249e-01  1.5904e-03  2.3065e-03  1.0721e-03  1.7929e-04  1.0235e-02  1.1470e-03  0:00:30   86
    15  2.1859e-01  1.4503e-03  2.1000e-03  9.6651e-04  1.6067e-04  8.4319e-03  8.1046e-04  0:00:24   85
    16  1.9731e-01  1.3302e-03  1.9329e-03  8.7582e-04  1.4611e-04  6.9946e-03  6.3833e-04  0:00:35   84
    17  1.7854e-01  1.2306e-03  1.7941e-03  7.9934e-04  1.3486e-04  5.8338e-03  5.3680e-04  0:00:28   83
    18  1.6319e-01  1.1477e-03  1.6820e-03  7.4183e-04  1.2584e-04  4.9111e-03  4.7498e-04  0:00:22   82
    19  1.5216e-01  1.0786e-03  1.5909e-03  6.9538e-04  1.1797e-04  4.2084e-03  4.3666e-04  0:00:18   81
    20  1.4381e-01  1.0207e-03  1.5167e-03  6.5707e-04  1.1099e-04  3.6975e-03  4.1507e-04  0:00:30   80
    21  1.3756e-01  9.7043e-04  1.4543e-03  6.2416e-04  1.0487e-04  3.3320e-03  4.0256e-04  0:00:24   79
    22  1.3298e-01  9.2525e-04  1.3989e-03  5.9311e-04  9.9458e-05  3.0801e-03  3.9456e-04  0:00:19   78

  iter  continuity  x-velocity  y-velocity  z-velocity      energy           k       omega     time/iter
    23  1.2897e-01  8.8445e-04  1.3494e-03  5.6477e-04  9.4126e-05  2.9026e-03  3.8776e-04  0:00:30   77
    24  1.2575e-01  8.4923e-04  1.3026e-03  5.3755e-04  8.8584e-05  2.7701e-03  3.8094e-04  0:00:24   76
    25  1.2248e-01  8.1858e-04  1.2582e-03  5.1326e-04  8.3059e-05  2.6629e-03  3.7397e-04  0:00:19   75
    26  1.1916e-01  7.9210e-04  1.2157e-03  4.8954e-04  7.7940e-05  2.5778e-03  3.6597e-04  0:00:30   74
    27  1.1591e-01  7.6855e-04  1.1759e-03  4.6934e-04  7.3026e-05  2.4967e-03  3.5675e-04  0:00:23   73
    28  1.1267e-01  7.4671e-04  1.1373e-03  4.5237e-04  6.8432e-05  2.4225e-03  3.4713e-04  0:00:18   72
    29  1.0946e-01  7.2805e-04  1.0989e-03  4.3862e-04  6.4002e-05  2.3528e-03  3.3549e-04  0:00:15   71
    30  1.0628e-01  7.1029e-04  1.0623e-03  4.2686e-04  5.9679e-05  2.2873e-03  3.2441e-04  0:00:25   70
    31  1.0315e-01  6.9295e-04  1.0245e-03  4.1645e-04  5.5682e-05  2.2197e-03  3.1330e-04  0:00:20   69
    32  1.0018e-01  6.7612e-04  9.8816e-04  4.0615e-04  5.1607e-05  2.1478e-03  3.0133e-04  0:00:16   68
    33  9.7271e-02  6.6055e-04  9.5033e-04  3.9581e-04  4.7922e-05  2.0722e-03  2.8864e-04  0:00:26   67

  iter  continuity  x-velocity  y-velocity  z-velocity      energy           k       omega     time/iter
    34  9.4263e-02  6.4393e-04  9.1387e-04  3.8625e-04  4.4432e-05  1.9943e-03  2.7714e-04  0:00:20   66
    35  9.1634e-02  6.2697e-04  8.7683e-04  3.7544e-04  4.1194e-05  1.9134e-03  2.6501e-04  0:00:16   65
    36  8.9022e-02  6.0839e-04  8.3981e-04  3.6423e-04  3.8177e-05  1.8303e-03  2.5343e-04  0:00:25   64
    37  8.6221e-02  5.8887e-04  8.0332e-04  3.5226e-04  3.5412e-05  1.7453e-03  2.4174e-04  0:00:20   63
    38  8.3352e-02  5.6894e-04  7.6761e-04  3.3949e-04  3.2860e-05  1.6616e-03  2.3092e-04  0:00:16   62
    39  8.0515e-02  5.4899e-04  7.3171e-04  3.2581e-04  3.0555e-05  1.5805e-03  2.1976e-04  0:00:25   61
    40  7.7633e-02  5.2909e-04  6.9764e-04  3.1208e-04  2.8414e-05  1.5052e-03  2.0965e-04  0:00:19   60
    41  7.4862e-02  5.1079e-04  6.6531e-04  2.9859e-04  2.6518e-05  1.4330e-03  1.9992e-04  0:00:15   59
    42  7.2029e-02  4.9167e-04  6.3415e-04  2.8528e-04  2.4739e-05  1.3674e-03  1.9053e-04  0:00:12   58
    43  6.9344e-02  4.7375e-04  6.0508e-04  2.7205e-04  2.3154e-05  1.3074e-03  1.8136e-04  0:00:21   57
    44  6.6794e-02  4.5604e-04  5.7760e-04  2.5992e-04  2.1735e-05  1.2523e-03  1.7308e-04  0:00:16   56

  iter  continuity  x-velocity  y-velocity  z-velocity      energy           k       omega     time/iter
    45  6.4428e-02  4.3936e-04  5.5264e-04  2.4856e-04  2.0469e-05  1.2029e-03  1.6544e-04  0:00:13   55
    46  6.2213e-02  4.2361e-04  5.2934e-04  2.3762e-04  1.9389e-05  1.1601e-03  1.5821e-04  0:00:21   54
    47  6.0113e-02  4.0798e-04  5.0746e-04  2.2744e-04  1.8452e-05  1.1236e-03  1.5142e-04  0:00:16   53
    48  5.8116e-02  3.9344e-04  4.8752e-04  2.1779e-04  1.7653e-05  1.0907e-03  1.4499e-04  0:00:13   52
    49  5.6190e-02  3.7899e-04  4.6859e-04  2.0847e-04  1.6933e-05  1.0615e-03  1.3904e-04  0:00:10   51
    50  5.4323e-02  3.6539e-04  4.5122e-04  1.9970e-04  1.6315e-05  1.0363e-03  1.3311e-04  0:00:18   50
    51  5.2528e-02  3.5271e-04  4.3523e-04  1.9149e-04  1.5767e-05  1.0158e-03  1.2792e-04  0:00:14   49
    52  5.0815e-02  3.4107e-04  4.2065e-04  1.8395e-04  1.5251e-05  9.9889e-04  1.2349e-04  0:00:11   48
    53  4.9143e-02  3.3037e-04  4.0745e-04  1.7681e-04  1.4804e-05  9.8266e-04  1.1879e-04  0:00:18   47
    54  4.7622e-02  3.2016e-04  3.9475e-04  1.7018e-04  1.4435e-05  9.7003e-04  1.1499e-04  0:00:14   46
    55  4.6232e-02  3.1081e-04  3.8310e-04  1.6426e-04  1.4121e-05  9.5837e-04  1.1135e-04  0:00:11   45

  iter  continuity  x-velocity  y-velocity  z-velocity      energy           k       omega     time/iter
    56  4.4853e-02  3.0167e-04  3.7162e-04  1.5875e-04  1.3817e-05  9.4906e-04  1.0797e-04  0:00:17   44
    57  4.3544e-02  2.9318e-04  3.6102e-04  1.5362e-04  1.3542e-05  9.3827e-04  1.0474e-04  0:00:14   43
    58  4.2260e-02  2.8493e-04  3.5008e-04  1.4899e-04  1.3301e-05  9.2971e-04  1.0184e-04  0:00:11   42
    59  4.1050e-02  2.7727e-04  3.3987e-04  1.4466e-04  1.3061e-05  9.1940e-04  9.8869e-05  0:00:17   41
    60  3.9899e-02  2.6955e-04  3.2943e-04  1.4079e-04  1.2836e-05  9.0908e-04  9.6139e-05  0:00:13   40
    61  3.8727e-02  2.6247e-04  3.1941e-04  1.3700e-04  1.2621e-05  8.9897e-04  9.3448e-05  0:00:10   39
    62  3.7616e-02  2.5538e-04  3.0934e-04  1.3345e-04  1.2387e-05  8.8797e-04  9.0816e-05  0:00:08   38
    63  3.6484e-02  2.4814e-04  2.9945e-04  1.3006e-04  1.2148e-05  8.7551e-04  8.8161e-05  0:00:14   37
    64  3.5353e-02  2.4074e-04  2.8933e-04  1.2693e-04  1.1922e-05  8.6221e-04  8.5397e-05  0:00:11   36
    65  3.4209e-02  2.3309e-04  2.7953e-04  1.2380e-04  1.1674e-05  8.4739e-04  8.2563e-05  0:00:08   35
    66  3.3070e-02  2.2536e-04  2.6959e-04  1.2056e-04  1.1389e-05  8.3154e-04  7.9745e-05  0:00:13   34

  iter  continuity  x-velocity  y-velocity  z-velocity      energy           k       omega     time/iter
    67  3.1991e-02  2.1764e-04  2.5967e-04  1.1718e-04  1.1086e-05  8.1390e-04  7.6838e-05  0:00:10   33
    68  3.0914e-02  2.0989e-04  2.4994e-04  1.1388e-04  1.0771e-05  7.9541e-04  7.4025e-05  0:00:08   32
    69  2.9866e-02  2.0211e-04  2.4042e-04  1.1052e-04  1.0438e-05  7.7581e-04  7.1040e-05  0:00:12   31
    70  2.8817e-02  1.9435e-04  2.3074e-04  1.0717e-04  1.0102e-05  7.5563e-04  6.8227e-05  0:00:10   30
    71  2.7779e-02  1.8675e-04  2.2147e-04  1.0370e-04  9.7549e-06  7.3458e-04  6.5398e-05  0:00:07   29
    72  2.6777e-02  1.7916e-04  2.1237e-04  1.0032e-04  9.4309e-06  7.1298e-04  6.2707e-05  0:00:11   28
    73  2.5792e-02  1.7163e-04  2.0352e-04  9.6859e-05  9.1143e-06  6.9161e-04  6.0203e-05  0:00:09   27
    74  2.4818e-02  1.6420e-04  1.9495e-04  9.3335e-05  8.8164e-06  6.6946e-04  5.7623e-05  0:00:07   26
    75  2.3873e-02  1.5693e-04  1.8643e-04  9.0042e-05  8.5413e-06  6.4784e-04  5.5270e-05  0:00:05   25
    76  2.2953e-02  1.5009e-04  1.7830e-04  8.6745e-05  8.2918e-06  6.2708e-04  5.3071e-05  0:00:09   24
    77  2.2068e-02  1.4351e-04  1.7066e-04  8.3384e-05  8.0572e-06  6.0666e-04  5.1012e-05  0:00:07   23

  iter  continuity  x-velocity  y-velocity  z-velocity      energy           k       omega     time/iter
    78  2.1252e-02  1.3713e-04  1.6336e-04  8.0244e-05  7.8525e-06  5.8740e-04  4.9083e-05  0:00:05   22
    79  2.0441e-02  1.3108e-04  1.5650e-04  7.7250e-05  7.6669e-06  5.6963e-04  4.7272e-05  0:00:08   21
    80  1.9679e-02  1.2538e-04  1.5001e-04  7.4414e-05  7.4949e-06  5.5326e-04  4.5596e-05  0:00:06   20
    81  1.8944e-02  1.1993e-04  1.4376e-04  7.1632e-05  7.3345e-06  5.3741e-04  4.3936e-05  0:00:05   19
    82  1.8205e-02  1.1455e-04  1.3760e-04  6.8951e-05  7.1843e-06  5.2234e-04  4.2394e-05  0:00:07   18
    83  1.7502e-02  1.0955e-04  1.3174e-04  6.6328e-05  7.0309e-06  5.0791e-04  4.0948e-05  0:00:05   17
    84  1.6831e-02  1.0471e-04  1.2608e-04  6.3829e-05  6.8792e-06  4.9383e-04  3.9471e-05  0:00:04   16
    85  1.6176e-02  1.0002e-04  1.2059e-04  6.1398e-05  6.7270e-06  4.7982e-04  3.7973e-05  0:00:03   15
    86  1.5555e-02  9.5439e-05  1.1529e-04  5.9001e-05  6.5747e-06  4.6604e-04  3.6487e-05  0:00:05   14
    87  1.4956e-02  9.0948e-05  1.1026e-04  5.6657e-05  6.4177e-06  4.5242e-04  3.4954e-05  0:00:04   13
    88  1.4366e-02  8.6589e-05  1.0531e-04  5.4384e-05  6.2560e-06  4.3909e-04  3.3458e-05  0:00:03   12

  iter  continuity  x-velocity  y-velocity  z-velocity      energy           k       omega     time/iter
    89  1.3770e-02  8.2382e-05  1.0054e-04  5.2157e-05  6.0845e-06  4.2597e-04  3.1916e-05  0:00:04   11
    90  1.3186e-02  7.8329e-05  9.5945e-05  4.9964e-05  5.9100e-06  4.1331e-04  3.0495e-05  0:00:03   10
    91  1.2615e-02  7.4357e-05  9.1586e-05  4.7809e-05  5.7280e-06  4.0073e-04  2.9038e-05  0:00:02    9
    92  1.2066e-02  7.0492e-05  8.7308e-05  4.5707e-05  5.5382e-06  3.8834e-04  2.7639e-05  0:00:03    8
    93  1.1538e-02  6.6790e-05  8.3213e-05  4.3658e-05  5.3385e-06  3.7635e-04  2.6278e-05  0:00:02    7
    94  1.1015e-02  6.3219e-05  7.9219e-05  4.1648e-05  5.1346e-06  3.6478e-04  2.5034e-05  0:00:02    6
    95  1.0515e-02  5.9798e-05  7.5352e-05  3.9693e-05  4.9267e-06  3.5350e-04  2.3824e-05  0:00:01    5
    96  1.0023e-02  5.6532e-05  7.1609e-05  3.7804e-05  4.7173e-06  3.4262e-04  2.2680e-05  0:00:01    4
    97  9.5487e-03  5.3377e-05  6.7986e-05  3.5954e-05  4.5026e-06  3.3189e-04  2.1563e-05  0:00:01    3
    98  9.0918e-03  5.0377e-05  6.4472e-05  3.4180e-05  4.2891e-06  3.2122e-04  2.0576e-05  0:00:00    2
    99  8.6506e-03  4.7547e-05  6.1131e-05  3.2460e-05  4.0819e-06  3.1058e-04  1.9656e-05  0:00:00    1

  iter  continuity  x-velocity  y-velocity  z-velocity      energy           k       omega     time/iter
   100  8.2273e-03  4.4917e-05  5.7946e-05  3.0814e-05  3.8793e-06  3.0011e-04  1.8797e-05  0:00:00    0
Performance profile written to C:/Users/egravenh/AppData/Local/Temp/_AAPptk4XW10hcrV_132820/run-information.txt
Performance profile written to C:/Users/egravenh/AppData/Local/Temp/_AAPptk4XW10hcrV_132820/run-information.txt

Writing to AAPptk4XW10hcrV:"C:/Users/egravenh/AppData/Local/ansys_fluent_core/ansys_fluent_core/examples/project-phufu5f6.cffdb\Static_Mixer_main-Solve\Base DP\Static_Mixer_main.cas.h5" in NODE0 mode and compression level 1 ...
       22771 cells,     1 zone  ...
      119140 faces,     5 zones ...
       82247 nodes,     1 zone  ...
  Done.
Done.

Writing to AAPptk4XW10hcrV:"C:/Users/egravenh/AppData/Local/ansys_fluent_core/ansys_fluent_core/examples/project-phufu5f6.cffdb\Static_Mixer_main-Solve\Base DP\Static_Mixer_main.dat.h5" in NODE0 mode and compression level 1 ...
  Writing results.
Done.

Transcript closed.
Project saved successfully at "test.flprj"
Shutting down Server...
Services Shutdown...Done.
Server Shutdown...Done.
Queue Cleared...Done.
Shutdown Complete.
Auto-Transcript Stop Time:  01:36:38, 02 Aug 2022 Eastern Daylight Time 
Total Transcript Time: 1 Minute 42 Second.
